1、CSEE-RAS/MATLAB/DAS.m
function mpc = DAS
%   MATPOWER 

%% MATPOWER Case Format : Version 2 
mpc.version = '2';

%%-----  Power Flow Data  -----%% 
%% system MVA base
mpc.baseMVA = 100; 

%% bus data 
%	bus_i	type	Pd	Qd	Gs	Bs	area	Vm	Va	baseKV	zone	Vmax	Vmin
mpc.bus = [
    1    1    0    0    0    0        1    0.9808780471552795    -9.55874248896678    1    1    1.06    0.94;
    2    1    0    0    0    0        1    0.9936640946448315    -6.279569468185632    1    1    1.06    0.94;
    3    1    0    0    0    0        1    0.9814618303606953    -9.451983393936894    1    1    1.06    0.94;
    4    1    0    0    0    0        1    0.9938347688489996    -6.227526326246977    1    1    1.06    0.94;
    5    1    0    0    0    0        1    1.005227693806469    -1.323635859066769    1    1    1.06    0.94;
    6    1    0    0    0    0        1    0.9989296202641137    -4.796032509856093    1    1    1.06    0.94;
    7    1    0    0    0    560        1    0.9979005142369207    -5.876985643832994    1    2    1.06    0.94;
    8    1    0    0    0    800        1    1.027856057296137    -31.06527186864175    1    2    1.06    0.94;
    9    1    0    0    0    0        1    1.021715689878644    -31.46933518088209    1    1    1.06    0.94;
    10    1    0    0    0    0        1    1.014722361106565    -30.44760758932462    1    1    1.06    0.94;
    11    1    0    0    0    0        1    0.9865456633123767    -22.66420600383781    1    1    1.06    0.94;
    12    1    0    0    0    0        1    1.006918610673963    -9.565283110335901    1    1    1.06    0.94;
    13    1    0    0    0    0        1    1.009250307340463    -6.283228248783442    1    1    1.06    0.94;
    14    1    0    0    0    0        1    1.013115658895128    -5.401497022928377    1    1    1.06    0.94;
    15    1    0    0    0    0        1    1.025039154213964    -3.661677336195209    1    1    1.06    0.94;
    16    1    0    0    0    0        1    1.015047829794803    -2.236024545715728    1    1    1.06    0.94;
    17    1    0    0    0    0        1    1.025965779517193    -0.4931168098867848    1    1    1.06    0.94;
    18    1    0    0    0    0        1    1.012211613395539    5.014028054281795    1    1    1.06    0.94;
    19    1    0    0    0    0        1    1.021426586366081    6.783617438079157    1    1    1.06    0.94;
    20    1    0    0    0    0        1    1.020566633913029    7.160287647274715    1    1    1.06    0.94;
    21    1    0    0    0    0        1    0.9978445929690851    -0.7536578507478546    1    1    1.06    0.94;
    22    1    0    0    0    0        1    1.003114708261356    1.107540505204441    1    1    1.06    0.94;
    23    1    3084    200    0    0        1    1.042092004086012    -39.55730981030838    1    3    1.06    0.94;
    24    1    1400    50    0    0        1    1.049213764433398    -37.79723611750488    1    3    1.06    0.94;
    25    1    0    0    0    0        1    1.037632962601409    -22.67848566254698    1    1    1.06    0.94;
    26    1    0    0    0    115        1    1.056654567483353    -9.597781805613803    1    1    1.06    0.94;
    27    1    0    0    0    70        1    1.039019208875412    -6.302634653701475    1    1    1.06    0.94;
    28    1    0    0    0    30        1    1.04772507222131    1.011632268791787    1    1    1.06    0.94;
    29    1    0    0    0    35        1    1.049647124309086    1.003055717079554    1    1    1.06    0.94;
    30    1    0    0    0    110        1    1.045319397584783    -4.97375371402401    1    1    1.06    0.94;
    31    1    0    0    0    30        1    1.048025413263306    4.174621200643081    1    1    1.06    0.94;
    32    1    0    0    0    75        1    1.045848439128958    4.184358866237037    1    1    1.06    0.94;
    33    1    0    0    0    60        1    1.032866488853785    -1.803948618262111    1    1    1.06    0.94;
    34    1    0    0    0    66.59999999999999        1    1.037883785680128    11.51806393544043    1    1    1.06    0.94;
    35    1    0    0    0    66.59999999999999        1    1.037883785680128    11.51806393544043    1    1    1.06    0.94;
    36    1    0    0    0    66.59999999999999        1    1.034467780470907    12.86813231502368    1    1    1.06    0.94;
    37    1    0    0    0    0        1    1.013276044564118    5.71917464027178    1    1    1.06    0.94;
    38    1    0    0    0    40        1    1.006156567836909    7.079024789840844    1    1    1.06    0.94;
    39    1    0    0    0    40        1    1.012464521097283    5.05970235589081    1    1    1.06    0.94;
    40    1    0    0    0    0        1    0.9977272077461907    -0.3009256835608117    1    1    1.06    0.94;
    41    1    0    0    0    680        1    1.119463663099663    -40.46253987676458    1    1    1.06    0.94;
    42    1    0    0    0    395        1    1.141407892184146    -38.6209143828689    1    1    1.06    0.94;
    43    1    0    0    0    210        1    1.135206841389291    -22.7403548347703    1    1    1.06    0.94;
    44    1    0    0    0    0        1    0.9192885976408385    -7.490162563002477    1    1    1.06    0.94;
    45    1    0    0    0    0        1    0.9707832309054742    -29.62997468021324    1    1    1.06    0.94;
    46    1    0    0    0    0        1    0.9192885976408385    -7.490162563002477    1    1    1.06    0.94;
    47    1    0    0    0    0        1    0.9707832309054742    -29.62997468021324    1    1    1.06    0.94;
    48    1    0    0    0    50        1    1.056392154333028    3.349545670635377    1    4    1.06    0.94;
    49    1    0    0    0    50        1    1.058336576913399    3.33239580904219    1    4    1.06    0.94;
    50    1    0    0    0    0        1    1.033137648677401    15.77397971509555    1    4    1.06    0.94;
    51    1    0    0    0    0        1    1.004710416635841    10.15132243861315    1    4    1.06    0.94;
    52    1    0    0    0    0        1    1.011835057942515    7.080257900803652    1    4    1.06    0.94;
    53    1    0    0    0    0        1    1.006918610673963    -9.565283110335901    1    1    1.06    0.94;
    54    1    0    0    0    0        1    1.009250307340463    -6.283228248783442    1    1    1.06    0.94;
    55    1    0    0    0    0        1    1.01464143433964    -4.960118104330036    1    1    1.06    0.94;
    56    1    0    0    0    0        1    1.016332394552033    -1.79661201436502    1    1    1.06    0.94;
    57    1    0    0    0    0        1    1.013276044564118    5.71917464027178    1    1    1.06    0.94;
    58    1    0    0    0    0        1    0.9977272077461907    -0.3009256835608117    1    1    1.06    0.94;
    59    1    0    0    0    0        1    1.041570579470786    -40.41333797776697    1    1    1.06    0.94;
    60    1    0    0    0    0        1    1.041570579470786    -40.41333797776697    1    1    1.06    0.94;
    61    1    0    0    0    0        1    1.041570579470786    -40.41333797776697    1    1    1.06    0.94;
    62    1    0    0    0    0        1    1.041570579470786    -40.41333797776697    1    1    1.06    0.94;
    63    1    0    0    0    0        1    1.049140663290448    -38.56305128395802    1    1    1.06    0.94;
    64    1    0    0    0    0        1    1.049140663290448    -38.56305128395802    1    1    1.06    0.94;
    65    1    0    0    0    0        1    1.037632962601409    -22.67848566254698    1    1    1.06    0.94;
    66    2    0    0    0    0        1    1.010000017792829    -4.231567157182101    1    5    1.06    0.94;
    67    2    0    0    0    0        1    1.010000102153372    -1.064030176376483    1    5    1.06    0.94;
    68    3    26.4    12.79    0    0        1    1    0    1    5    1.06    0.94;
    69    2    0    0    0    0        1    1.029999894195846    -28.51554101807347    1    5    1.06    0.94;
    70    2    0    0    0    0        1    1.029999894195846    -28.51554101807347    1    5    1.06    0.94;
    71    2    0    0    0    0        1    1.029999922164026    -26.73243650886969    1    5    1.06    0.94;
    72    2    0    0    0    0        1    1.030000036895195    -18.86163223643977    1    5    1.06    0.94;
    73    1    0    0    0    50        1    1.05824033027925    6.974494025744995    1    6    1.06    0.94;
    74    1    0    0    0    0        1    1.044561725155412    7.026835116860549    1    6    1.06    0.94;
    75    1    0    0    0    0        1    1.036567057997913    14.40448127556141    1    6    1.06    0.94;
    76    1    0    0    0    0        1    1.036567057997913    14.40448127556141    1    6    1.06    0.94;
];
%% generator data
%	bus	Pg	Qg	Qmax	Qmin	Vg	mBase	status	Pmax	Pmin	Pc1	Pc2	Qc1min	Qc1max	Qc2min	Qc2max	ramp_agc	ramp_10	ramp_30	ramp_q	apf
mpc.gen = [
  48  250  0  0  0  1.056392154333028  100  1  400  0   0 0 0 0 0 0 0 0 0 0 0;
  49  250  0  0  0  1.058336576913399  100  1  400  0   0 0 0 0 0 0 0 0 0 0 0;
  50  300  0  0  0  1.033137648677401  100  1  400  0   0 0 0 0 0 0 0 0 0 0 0;
  51  300  0  0  0  1.004710416635841  100  1  400  0   0 0 0 0 0 0 0 0 0 0 0;
  52  200  0  0  0  1.011835057942515  100  1  400  0   0 0 0 0 0 0 0 0 0 0 0;
  66  400  140.8807  300  -150  1.010000017792829  100  1  600  0   0 0 0 0 0 0 0 0 0 0 0;
  67  400  85.514  300  -150  1.010000102153372  100  1  600  0   0 0 0 0 0 0 0 0 0 0 0;
  68  395.4848  28.7282  300  -200  1  100  1  600  0   0 0 0 0 0 0 0 0 0 0 0;
  69  240  41.1081  300  -150  1.029999894195846  100  1  600  0   0 0 0 0 0 0 0 0 0 0 0;
  70  240  41.1081  300  -150  1.029999894195846  100  1  600  0   0 0 0 0 0 0 0 0 0 0 0;
  71  300  75.7608  300  -150  1.029999922164026  100  1  600  0   0 0 0 0 0 0 0 0 0 0 0;
  72  300  204.1306  300  -150  1.030000036895195  100  1  600  0   0 0 0 0 0 0 0 0 0 0 0;
  73  250  0  0  0  1.05824033027925  100  1  400  0   0 0 0 0 0 0 0 0 0 0 0;
  74  250  0  0  0  1.044561725155412  100  1  400  0   0 0 0 0 0 0 0 0 0 0 0;
  75  250  0  0  0  1.036567057997913  100  1  400  0   0 0 0 0 0 0 0 0 0 0 0;
  76  250  0  0  0  1.036567057997913  100  1  400  0   0 0 0 0 0 0 0 0 0 0 0;
44    -400    -118.3314743041992    9999  -9999  1.056392154333028  100  1  -9999  0   0 0 0 0 0 0 0 0 0 0 0;
45    396.8000183105469    -129.5991668701172    9999  -9999  1.056392154333028  100  1  -9999  0   0 0 0 0 0 0 0 0 0 0 0;
46    -400    -118.3314743041992    9999  -9999  1.058336576913399  100  1  -9999  0   0 0 0 0 0 0 0 0 0 0 0;
47    396.8000183105469    -129.5991668701172    9999  -9999  1.058336576913399  100  1  -9999  0   0 0 0 0 0 0 0 0 0 0 0;
];
%% branch data
%	fbus	tbus	r	x	b	rateA	rateB	rateC	ratio	angle	status	angmin	angmax   
mpc.branch = [
  2  1  0.0002  0.0064  -7.9607992  0  0  0  0    0  1  -360  360  ;
  2  1  0.0002  0.0064  0.7852  0  0  0  0    0  1  -360  360  ;
  3  1  0  0.0002  0  0  0  0  0    0  1  -360  360  ;
  4  2  0  0.0001  0  0  0  0  0    0  1  -360  360  ;
  5  7  0.0008899999999999999  0.0201  -0.952  4360  4360  4360  0    0  1  -360  360  ;
  5  7  0.0008899999999999999  0.0201  2.328  4360  4360  4360  0    0  1  -360  360  ;
  6  7  0.00023  0.0043  0.524  0  0  0  0    0  1  -360  360  ;
  6  7  0.00024  0.00439  0.5258  0  0  0  0    0  1  -360  360  ;
  7  2  0.00013  0.00252  0.3286  0  0  0  0    0  1  -360  360  ;
  7  2  0.00013  0.00251  0.3278  0  0  0  0    0  1  -360  360  ;
  7  2  0.00013  0.00249  0.3252  0  0  0  0    0  1  -360  360  ;
  8  9  0.00014  0.00197  0.21968  0  0  0  0    0  1  -360  360  ;
  8  9  0.00014  0.00197  0.21968  0  0  0  0    0  1  -360  360  ;
  9  10  0.00014  0.00197  0.61968  0  0  0  0    0  1  -360  360  ;
  9  10  0.00014  0.00197  0.61968  0  0  0  0    0  1  -360  360  ;
  11  1  0.00045  0.0166  -5.7176004  3600  3600  3600  0    0  1  -360  360  ;
  11  1  0.00045  0.0166  1.9364  3600  3600  3600  0    0  1  -360  360  ;
  11  10  0.00025  0.009209999999999999  -6.5782004  3600  3600  3600  0    0  1  -360  360  ;
  11  10  0.00025  0.009209999999999999  1.0758  3600  3600  3600  0    0  1  -360  360  ;
  15  14  0.00186  0.01307  0.04824  1596  1596  1596  0    0  1  -360  360  ;
  15  14  0.00186  0.01307  0.04824  1596  1596  1596  0    0  1  -360  360  ;
  17  16  0.00186  0.01307  0.04824  1596  1596  1596  0    0  1  -360  360  ;
  17  16  0.00186  0.01307  0.04824  1596  1596  1596  0    0  1  -360  360  ;
  19  18  0.00186  0.01307  0.04824  1596  1596  1596  0    0  1  -360  360  ;
  19  18  0.00186  0.01307  0.04824  1596  1596  1596  0    0  1  -360  360  ;
  20  18  0.00186  0.01307  0.04824  1596  1596  1596  0    0  1  -360  360  ;
  22  21  0.00186  0.01307  0.04824  1596  1596  1596  0    0  1  -360  360  ;
  22  21  0.00186  0.01307  0.04824  1596  1596  1596  0    0  1  -360  360  ;
  1  53  8.000000000000001e-05  0.02143    0    1000  1000  1000  1    0  1  -360  360  
  2  54  8.000000000000001e-05  0.02143    0    1000  1000  1000  1    0  1  -360  360  
  7  44  0  0.006    0    3000  3000  3000  1.07604341052819    0  1  -360  360  
  7  46  0  0.006    0    3000  3000  3000  1.07604341052819    0  1  -360  360  
  8  45  0  0.006    0    3000  3000  3000  1.049796433221714    0  1  -360  360  
  8  47  0  0.006    0    3000  3000  3000  1.049796433221714    0  1  -360  360  
  11  65  8.000000000000001e-05  0.02143    0    1000  1000  1000  1    0  1  -360  360  
  12  53  5e-05  -0.0021    0    1000  1000  1000  1    0  1  -360  360  
  13  54  5e-05  -0.0021    0    1000  1000  1000  1    0  1  -360  360  
  15  28  0  0.035    0    300  300  300  1    0  1  -360  360  
  15  29  0  0.035    0    300  300  300  1    0  1  -360  360  
  17  31  0  0.035    0    300  300  300  1    0  1  -360  360  
  17  32  0  0.035    0    300  300  300  1    0  1  -360  360  
  19  34  0  0.035    0    300  300  300  1    0  1  -360  360  
  19  35  0  0.035    0    300  300  300  1    0  1  -360  360  
  20  36  0  0.035    0    300  300  300  1    0  1  -360  360  
  22  38  0  0.035    0    300  300  300  1    0  1  -360  360  
  22  39  0  0.035    0    300  300  300  1    0  1  -360  360  
  25  65  5e-05  -0.0021    0    1000  1000  1000  1    0  1  -360  360  
  26  53  0.00047  0.04093    0    300  300  300  1    0  1  -360  360  
  27  54  0.00047  0.04093    0    300  300  300  1    0  1  -360  360  
  41  59  0.00047  0.04093    0    300  300  300  1    0  1  -360  360  
  41  60  0.00047  0.04093    0    300  300  300  1    0  1  -360  360  
  41  61  0.00047  0.04093    0    300  300  300  1    0  1  -360  360  
  41  62  0.00047  0.04093    0    300  300  300  1    0  1  -360  360  
  42  63  0.00047  0.04093    0    300  300  300  1    0  1  -360  360  
  42  64  0.00047  0.04093    0    300  300  300  1    0  1  -360  360  
  48  28  0  0.01806    0    360  360  360  1.000000015    0  1  -360  360  
  49  29  0  0.01806    0    360  360  360  1.000000015    0  1  -360  360  
  50  36  0  0.01806    0    360  360  360  1.000000015    0  1  -360  360  
  51  38  0  0.01806    0    360  360  360  1.000000015    0  1  -360  360  
  52  39  0  0.01806    0    360  360  360  1.000000015    0  1  -360  360  
  55  3  5e-05  0.0157    0    1000  1000  1000  1    0  1  -360  360  
  55  14  5e-05  -0.00158    0    1000  1000  1000  1    0  1  -360  360  
  55  30  0.00021  0.02668    0    360  360  360  1    0  1  -360  360  
  56  4  5e-05  0.0157    0    1000  1000  1000  1    0  1  -360  360  
  56  16  5e-05  -0.00158    0    1000  1000  1000  1    0  1  -360  360  
  56  33  0.00021  0.02668    0    360  360  360  1    0  1  -360  360  
  57  5  5e-05  0.0157    0    1000  1000  1000  1    0  1  -360  360  
  57  18  5e-05  -0.00158    0    1000  1000  1000  1    0  1  -360  360  
  57  37  0.00021  0.02668    0    360  360  360  1    0  1  -360  360  
  58  6  5e-05  0.0157    0    1000  1000  1000  1    0  1  -360  360  
  58  21  5e-05  -0.00158    0    1000  1000  1000  1    0  1  -360  360  
  58  40  0.00021  0.02668    0    360  360  360  1    0  1  -360  360  
  59  9  8.000000000000001e-05  0.02143    0    1000  1000  1000  1    0  1  -360  360  
  59  23  5e-05  -0.0021    0    1000  1000  1000  1    0  1  -360  360  
  60  9  8.000000000000001e-05  0.02143    0    1000  1000  1000  1    0  1  -360  360  
  60  23  5e-05  -0.0021    0    1000  1000  1000  1    0  1  -360  360  
  61  9  8.000000000000001e-05  0.02143    0    1000  1000  1000  1    0  1  -360  360  
  61  23  5e-05  -0.0021    0    1000  1000  1000  1    0  1  -360  360  
  62  9  8.000000000000001e-05  0.02143    0    1000  1000  1000  1    0  1  -360  360  
  62  23  5e-05  -0.0021    0    1000  1000  1000  1    0  1  -360  360  
  63  10  8.000000000000001e-05  0.02143    0    1000  1000  1000  1    0  1  -360  360  
  63  24  5e-05  -0.0021    0    1000  1000  1000  1    0  1  -360  360  
  64  10  8.000000000000001e-05  0.02143    0    1000  1000  1000  1    0  1  -360  360  
  64  24  5e-05  -0.0021    0    1000  1000  1000  1    0  1  -360  360  
  65  43  0.00047  0.04093    0    300  300  300  1    0  1  -360  360  
  66  3  0.00026  0.02264    0    780  780  780  1    0  1  -360  360  
  67  4  0.00026  0.02264    0    780  780  780  1    0  1  -360  360  
  68  6  0.00026  0.02264    0    780  780  780  1    0  1  -360  360  
  69  9  0.00026  0.02264    0    780  780  780  1    0  1  -360  360  
  70  9  0.00026  0.02264    0    780  780  780  1    0  1  -360  360  
  71  10  0.00026  0.02264    0    780  780  780  1    0  1  -360  360  
  72  11  0.00026  0.02264    0    780  780  780  1    0  1  -360  360  
  73  31  0  0.02167    0    300  300  300  0.9999999965217392    0  1  -360  360  
  74  32  0  0.02167    0    300  300  300  0.9999999965217392    0  1  -360  360  
  75  34  0  0.02167    0    300  300  300  0.9999999965217392    0  1  -360  360  
  76  35  0  0.02167    0    300  300  300  0.9999999965217392    0  1  -360  360  
];
%% busmap data
%	busname  bus_no 
mpc.map = {
'B01525.00',1;
'B02525.00',2;
'B03525.00',3;
'B04525.00',4;
'B05525.00',5;
'B06525.00',6;
'B07525.00',7;
'B08525.00',8;
'B09525.00',9;
'B10525.00',10;
'B11525.00',11;
'B12230.00',12;
'B13230.00',13;
'B14230.00',14;
'B17230.00',15;
'B18230.00',16;
'B19230.00',17;
'B21230.00',18;
'B22230.00',19;
'B24230.00',20;
'B25230.00',21;
'B26230.00',22;
'B28230.00',23;
'B29230.00',24;
'B33230.00',25;
'B3737.00',26;
'B3837.00',27;
'B4337.00',28;
'B4437.00',29;
'B4537.00',30;
'B4637.00',31;
'B4737.00',32;
'B5037.00',33;
'B5137.00',34;
'B5237.00',35;
'B5537.00',36;
'B5737.00',37;
'B5837.00',38;
'B5937.00',39;
'B6237.00',40;
'B6337.00',41;
'B6837.00',42;
'B7437.00',43;
'DN01210.00',44;
'DN02199.00',45;
'DP01210.00',46;
'DP02199.00',47;
'PV03-10.40',48;
'PV03-20.40',49;
'PV05-10.40',50;
'PV06-10.40',51;
'PV06-20.40',52;
'T3-011.00',53;
'T3-021.00',54;
'T3-031.00',55;
'T3-051.00',56;
'T3-071.00',57;
'T3-091.00',58;
'T3-111.00',59;
'T3-121.00',60;
'T3-131.00',61;
'T3-141.00',62;
'T3-161.00',63;
'T3-171.00',64;
'T3-221.00',65;
'TP03-120.00',66;
'TP04-120.00',67;
'TP06-120.00',68;
'TP09-120.00',69;
'TP09-220.00',70;
'TP10-120.00',71;
'TP11-120.00',72;
'WT04-10.69',73;
'WT04-20.69',74;
'WT05-10.69',75;
'WT05-20.69',76;
};
%% busmap data
%	busname  bus_no 
mpc.zonemap = {
'0',1;
'1S',2;
'CG',5;
'FD',6;
'FH',3;
'GF',4;
};
